RMPLinker 1.0 for PK8000 by Ivan Gorodetsky - Ufa, 2008
Input file: l@dance1.rmp
Output file: ladanc.cas
PK8000 file: ladanc
