RMPLinker 1.0 for PK8000 by Ivan Gorodetsky - Ufa, 2008
Input file: e-type.rmp
Output file: e-type.cas
PK8000 file: e-type
